# hf units=au

pillar

0 1
 C                  0.02290500    0.02419300   -0.82040900
 C                  5.41561600    0.02353800    0.07308400
 C                  4.04833800    2.35395200    0.05051600
 C                  1.38596300    2.35508100   -0.50547400
 C                  8.06352300    0.04297900    0.70100100
 C                 16.11661200    0.01611900    1.33883300
 C                 24.10113700    0.02477600    0.07374000
 C                 13.40133300    0.01565200    1.33875400
 C                 21.45448500    0.04278200    0.70207400
 C                 29.49372600    0.02538500   -0.82046900
 C                 11.97837800    2.13171000    2.28717500
 C                 20.23122600    2.24248300    1.77576100
 C                 28.13019000    2.35554800   -0.50554500
 C                  9.28728100    2.24218000    1.77393800
 C                 17.53947300    2.13177100    2.28831600
 C                 25.46867300    2.35534500    0.05184500
 C                  0.01377600    4.69401200   -0.42043300
 C                  0.00613500    9.31342200    0.10900800
 C                  0.00662300   13.92655500    0.10843500
 C                  0.01440100   18.54610000   -0.42100200
 C                  0.02325300   23.21538300   -0.82087400
 C                  5.28328400    4.60116900    0.99961000
 C                  4.95656700    9.17808600    2.18536300
 C                  4.95715800   14.05948200    2.18670400
 C                  5.28393400   18.63849300    1.00156100
 C                  5.41639500   23.21546500    0.07361400
 C                  3.92708100    6.96163900    0.97945500
 C                  3.80976300   11.61919000    1.67233800
 C                  3.92747500   16.27663000    0.98085300
 C                  4.04794500   20.88566500    0.05108200
 C                  4.09873800   25.56257300   -0.35269200
 C                  1.36008000    6.98922900    0.08334100
 C                  1.35600300   11.62027700    0.52827500
 C                  1.36118700   16.25040700    0.08276000
 C                  1.38616100   20.88461100   -0.50593200
 C                  1.40292600   25.56320100   -0.76279000
 C                  7.71433600    4.44922000    2.21956000
 C                  6.80772100    8.66827800    4.14528200
 C                  6.80838600   14.56918300    4.14636400
 C                  7.71470500   18.79045200    2.22171200
 C                  8.06294900   23.19677600    0.70201000
 C                 16.10759800    3.61189400    4.13795200
 C                 16.10733600   19.62780300    4.13689100
 C                 16.11569200   23.22505200    1.33865500
 C                 24.23390400    4.60302800    1.00215900
 C                 24.55914300    9.18176800    2.18742200
 C                 24.56074800   14.06195400    2.18585200
 C                 24.23408400   18.63996200    0.99934600
 C                 24.10074900   23.21810800    0.07298700
 C                 13.40950600    3.61145000    4.13735300
 C                 13.41014400   19.62736600    4.13772400
 C                 13.40087700   23.22406500    1.33914600
 C                 21.80289400    4.44950800    2.22229500
 C                 22.70815300    8.67175900    4.14638600
 C                 22.70941400   14.57342800    4.14525400
 C                 21.80317600   18.79185100    2.21881400
 C                 21.45369900   23.19766000    0.70132200
 C                 29.50134600    4.69479200   -0.42022500
 C                 29.50968600    9.31349800    0.10883800
 C                 29.51028200   13.92718500    0.10839000
 C                 29.50233300   18.54656800   -0.42146200
 C                 29.49411900   23.21627800   -0.82093300
 C                 11.97850000   21.10817500    2.28807500
 C                 12.07850400   25.56312500    0.90627800
 C                 21.32899200    6.35354500    4.14912400
 C                 21.32945000   16.88957900    4.14629600
 C                 20.23045300   20.99866900    1.77337100
 C                 20.11198800   25.56390000    0.67867100
 C                 28.15525700    6.99025500    0.08375500
 C                 28.16026300   11.62006800    0.52815400
 C                 28.15630700   16.25100100    0.08234900
 C                 28.13054800   20.88595300   -0.50639300
 C                 28.11466700   25.56372700   -0.76306900
 C                  8.18866600    6.35126900    4.14723300
 C                  8.18844900   16.88632300    4.14903100
 C                  9.28688700   20.99758600    1.77529100
 C                  9.40514100   25.56335800    0.67847700
 C                 17.53889900   21.10874100    2.28711900
 C                 17.43828700   25.56411800    0.90634300
 C                 25.58914700    6.96444000    0.98162400
 C                 25.70739800   11.62096500    1.67242800
 C                 25.59044800   16.27886400    0.97930500
 C                 25.46790300   20.88749900    0.05018900
 C                 25.41865200   25.56413900   -0.35285800
 Tv                32.20094600    0.00000000    0.00000000
 Tv                 0.00000000   27.88683560    0.00000000
 Tv                 0.00000000    0.00000000    6.417212583333335

