# hf 

pillar

0 1
  C1     0.01212080    0.01280238   -0.43414175 
  C1     2.86582057    0.01245577    0.03867439 
  C1     2.14228821    1.24565775    0.02673192 
  C1     0.73342003    1.24625520   -0.26748532 
  C1     4.26703261    0.02274351    0.37095375 
  C1     8.52854379    0.00852981    0.70847991 
  C1    12.75377246    0.01311089    0.03902153 
  C1     7.09168002    0.00828268    0.70843811 
  C1    11.35322454    0.02263926    0.37152156 
  C1    15.60740767    0.01343316   -0.43417350 
  C3     6.33868466    1.12805235    1.21032089 
  C3    10.70590375    1.18667090    0.93969225 
  C1    14.88585549    1.24650232   -0.26752289 
  C3     4.91461746    1.18651056    0.93872756 
  C3     9.28148940    1.12808463    1.21092468 
  C1    13.47744135    1.24639490    0.02743519 
  C1     0.00728995    2.48396418   -0.22248356 
  C1     0.00324650    4.92845068    0.05768455 
  C1     0.00350474    7.36961553    0.05738133 
  C1     0.00762068    9.81417347   -0.22278466 
  C1     0.01230496   12.28505163   -0.43438781 
  C1     2.79579349    2.43483378    0.52897083 
  C3     2.62290230    4.85683395    1.15644430 
  C3     2.62321504    7.43995747    1.15715392 
  C1     2.79613746    9.86306574    0.53000326 
  C1     2.86623280   12.28509502    0.03895485 
  C1     2.07812177    3.68394071    0.51830527 
  C3     2.01603976    6.14861056    0.88496316 
  C1     2.07833027    8.61322167    0.51904505 
  C1     2.14208025   11.05221795    0.02703143 
  C1     2.16895874   13.52713109   -0.18663657 
  C1     0.71972334    3.69854071    0.04410216 
  C1     0.71756589    6.14918577    0.27955109 
  C1     0.72030914    8.59934505    0.04379471 
  C1     0.73352481   11.05166020   -0.26772768 
  C1     0.74239647   13.52746341   -0.40365108 
  C3     4.08225081    2.35442583    1.17454057 
  C3     3.60249081    4.58705518    2.19358877 
  C3     3.60284271    7.70967963    2.19416134 
  C3     4.08244608    9.94347898    1.17567936 
  C1     4.26672886   12.27520523    0.37148769 
  C3     8.52377379    1.91133199    2.18970990 
  C3     8.52363514   10.38658605    2.18914844 
  C1     8.52805695   12.29016824    0.70838572 
  C1    12.82402973    2.43581752    0.53031970 
  C3    12.99613880    4.85878238    1.15753387 
  C3    12.99698813    7.44126560    1.15670307 
  C1    12.82412498    9.86384310    0.52883113 
  C1    12.75356714   12.28649364    0.03862306 
  C3     7.09600499    1.91109704    2.18939292 
  C3     7.09634260   10.38635480    2.18958925 
  C1     7.09143872   12.28964594    0.70864555 
  C3    11.53759464    2.35457823    1.17598787 
  C3    12.01663707    4.58889724    2.19417298 
  C3    12.01730436    7.71192598    2.19357395 
  C3    11.53774387    9.94421930    1.17414580 
  C1    11.35280860   12.27567302    0.37112362 
  C1    15.61144000    2.48437694   -0.22237349 
  C1    15.61585333    4.92849090    0.05759459 
  C1    15.61616872    7.36994892    0.05735752 
  C1    15.61196229    9.81442113   -0.22302809 
  C1    15.60761563   12.28552524   -0.43441904 
  C3     6.33874922   11.16996518    1.21079715 
  C1     6.39166906   13.52742319    0.47958166 
  C3    11.28681650    3.36215122    2.19562187 
  C3    11.28705886    8.93758031    2.19412535 
  C3    10.70549470   11.11201710    0.93842752 
  C1    10.64280572   13.52783330    0.35913723 
  C1    14.89912037    3.69908365    0.04432124 
  C1    14.90176944    6.14907518    0.27948706 
  C1    14.89967601    8.59965939    0.04357721 
  C1    14.88604493   11.05237036   -0.26797164 
  C1    14.87764107   13.52774176   -0.40379873 
  C3     4.33325544    3.36094682    2.19462119 
  C3     4.33314060    8.93585731    2.19557265 
  C3     4.91440896   11.11144400    0.93944354 
  C1     4.97698628   13.52754649    0.35903457 
  C3     9.28118566   11.17026469    1.21029125 
  C1     9.22794408   13.52794866    0.47961606 
  C1    13.54119344    3.68542294    0.51945305 
  C3    13.60376918    6.14954985    0.88501078 
  C1    13.54188190    8.61440385    0.51822589 
  C1    13.47703388   11.05318847    0.02655888 
  C1    13.45097137   13.52795978   -0.18672441 
  Tv    17.04000680    0.00000000    0.00000000 
  Tv     0.00000000   14.75707789    0.00000000 
  Tv     0.00000000    0.00000000    3.39584266 

