#hf 

graphene sheet

0  1
  C1     0.00000000    0.00000000    0.00000000 
  C1     2.83999884    0.00000000    0.00000000 
  C1     2.13000178    1.22975492    0.00000000 
  C1     0.71000236    1.22975492    0.00000000 
  Tv     4.25999826    0.00000000    0.00000000 
  Tv     0.00000000    2.45950984    0.00000000 
  Tv     0.00000000    0.00000000    3.39584266 


