# hf 

6 6 CNNT

0 1
  C2     7.10348755    2.14303488    1.22975492 
  C2     6.41855232    2.32656200    0.00000000 
  C2     9.20123016    2.32656571    0.00000000 
  C2     8.51629016    2.14303541    1.22975492 
  C2    10.92616001    3.53437195    1.22975492 
  C2    10.42475190    3.03296596    0.00000000 
  C2    11.81609002    5.44282998    0.00000000 
  C2    11.63256290    4.75789475    1.22975492 
  C2    11.63255866    7.54057258    1.22975492 
  C2    11.81608896    6.85563259    0.00000000 
  C2    10.42475243    9.26550243    0.00000000 
  C2    10.92615842    8.76409432    1.22975492 
  C2     8.51629439   10.15543192    1.22975492 
  C2     9.20122963    9.97190480    0.00000000 
  C2     6.41855179    9.97190109    0.00000000 
  C2     7.10349179   10.15543139    1.22975492 
  C2     4.69362194    8.76409485    1.22975492 
  C2     5.19503005    9.26550084    0.00000000 
  C2     3.80369245    6.85563682    0.00000000 
  C2     3.98721958    7.54057205    1.22975492 
  C2     3.98722381    4.75789422    1.22975492 
  C2     3.80369298    5.44283421    0.00000000 
  C2     5.19502952    3.03296437    0.00000000 
  C2     4.69362353    3.53437248    1.22975492 
  Tv    17.04000680    0.00000000    0.00000000 
  Tv     0.00000000   14.75707789    0.00000000 
  Tv     0.00000000    0.00000000    2.45950984 

