# hf units=au

6 6 CNNT

0 1
  C   13.423646  4.049749  2.323900 
  C   12.129306  4.396565  0.000000 
  C   17.387805  4.396572  0.000000 
  C   16.093456  4.049750  2.323900 
  C   20.647450  6.678995  2.323900 
  C   19.699926  5.731475  0.000000 
  C   22.329174  10.285458  0.000000 
  C   21.982358  8.991118  2.323900 
  C   21.982350  14.249617  2.323900 
  C   22.329172  12.955268  0.000000 
  C   19.699927  17.509262  0.000000 
  C   20.647447  16.561738  2.323900 
  C   16.093464  19.190985  2.323900 
  C   17.387804  18.844169  0.000000 
  C   12.129305  18.844162  0.000000 
  C   13.423654  19.190984  2.323900 
  C   8.869660  16.561739  2.323900 
  C   9.817184  17.509259  0.000000 
  C   7.187937  12.955276  0.000000 
  C   7.534753  14.249616  2.323900 
  C   7.534761  8.991117  2.323900 
  C   7.187938  10.285466  0.000000 
  C   9.817183  5.731472  0.000000 
  C   8.869663  6.678996  2.323900 
 Tv                32.20094600    0.00000000    0.00000000
 Tv                 0.00000000   27.88683560    0.00000000
Tv    0.0    0.0    4.6478

